LTspice 24.1.8 for Windows
Circuit: C:\Users\wojtek\Desktop\Symulacje_Proj_ELA2\LT1618_sekAnal2.net
Start Time: Mon Jun  2 23:10:45 2025
solver = Normal
Maximum thread count: 2
tnom = 27
temp = 27
method = trap
C1: Increased Cpar to 4.7e-12
C2: Increased Cpar to 1e-14
C3: Increased Cpar to 4.7e-12
Direct Newton iteration failed to find .op point.  (Use ".option noopiter" to skip.)
Starting Gmin stepping
Gmin = 10
Gmin = 1.07374
Gmin = 0.115292
Gmin = 0.0123794
Gmin = 0.00132923
Gmin = 0.000142725
Gmin = 1.5325e-05
Gmin = 1.6455e-06
Gmin = 1.76685e-07
Gmin = 1.89714e-08
Gmin = 2.03704e-09
Gmin = 2.18725e-10
Gmin = 2.34854e-11
Gmin = 2.52173e-12
Gmin = 2.70769e-13
Gmin = 0
Gmin stepping succeeded in finding the operating point.

Total elapsed time: 35.163 seconds.

Files loaded:
C:\Users\wojtek\Desktop\Symulacje_Proj_ELA2\LT1618_sekAnal2.net
C:\Users\wojtek\AppData\Local\LTspice\lib\cmp\standard.dio
C:\Users\wojtek\AppData\Local\LTspice\lib\sub\LT1618.sub

vout_pp: PP(V(Vout))=0.0587139129639 FROM 0.0015 TO 0.002
vin_pp: PP(V(Vin))=0.00308895111084 FROM 0.0015 TO 0.002
